
     RDKit          3D

 51 53  0  0  0  0  0  0  0  0999 V2000
   60.0880   26.6350   17.5700 C   0  0  0  0  0  0  0  0  0  0  0  0
   59.0290   26.6830   18.3940 C   0  0  0  0  0  0  0  0  0  0  0  0
   57.7430   26.2520   17.8100 C   0  0  0  0  0  0  0  0  0  0  0  0
   56.5920   26.3890   18.4900 C   0  0  0  0  0  0  0  0  0  0  0  0
   56.5970   27.0220   19.8050 C   0  0  0  0  0  0  0  0  0  0  0  0
   55.4630   27.4730   20.4000 C   0  0  0  0  0  0  0  0  0  0  0  0
   54.2280   27.4030   19.7820 O   0  0  0  0  0  0  0  0  0  0  0  0
   55.4180   28.0810   21.6610 N   0  0  0  0  0  0  0  0  0  0  0  0
   54.7360   27.3340   22.7290 C   0  0  0  0  0  0  0  0  0  0  0  0
   55.2980   29.5040   21.7390 C   0  0  0  0  0  0  0  0  0  0  0  0
   54.0850   30.1930   21.5710 C   0  0  0  0  0  0  0  0  0  0  0  0
   54.0040   31.5850   21.7030 C   0  0  0  0  0  0  0  0  0  0  0  0
   55.1370   32.3250   22.0200 C   0  0  0  0  0  0  0  0  0  0  0  0
   56.3560   31.6780   22.1760 C   0  0  0  0  0  0  0  0  0  0  0  0
   56.4340   30.2880   22.0270 C   0  0  0  0  0  0  0  0  0  0  0  0
   57.8920   27.1510   20.4970 C   0  0  0  0  0  0  0  0  0  0  0  0
   59.0640   27.0680   19.8270 C   0  0  0  0  0  0  0  0  0  0  0  0
   60.5100   27.4460   20.7470 S   0  0  0  0  0  6  0  0  0  0  0  0
   60.1800   27.7370   22.1280 O   0  0  0  0  0  0  0  0  0  0  0  0
   61.6130   26.5630   20.4630 O   0  0  0  0  0  0  0  0  0  0  0  0
   61.1670   28.9420   20.2280 N   0  0  0  0  0  4  0  0  0  0  0  0
   60.9370   29.9850   21.2590 C   0  0  0  0  0  0  0  0  0  0  0  0
   61.6580   31.2830   20.9190 C   0  0  0  0  0  0  0  0  0  0  0  0
   63.1190   31.0350   20.5840 C   0  0  0  0  0  0  0  0  0  0  0  0
   63.2180   30.0950   19.3940 C   0  0  0  0  0  0  0  0  0  0  0  0
   62.5330   28.7620   19.6610 C   0  0  0  0  0  0  0  0  0  0  0  0
   61.0808   26.9403   17.9320 H   0  0  0  0  0  0  0  0  0  0  0  0
   59.9628   26.2904   16.5329 H   0  0  0  0  0  0  0  0  0  0  0  0
   57.7269   25.8117   16.8021 H   0  0  0  0  0  0  0  0  0  0  0  0
   55.6487   26.0250   18.0567 H   0  0  0  0  0  0  0  0  0  0  0  0
   54.3580   27.3140   18.8250 H   0  0  0  0  0  0  0  0  0  0  0  0
   55.0737   27.7039   23.7084 H   0  0  0  0  0  0  0  0  0  0  0  0
   53.6489   27.4753   22.6386 H   0  0  0  0  0  0  0  0  0  0  0  0
   54.9754   26.2642   22.6386 H   0  0  0  0  0  0  0  0  0  0  0  0
   53.1750   29.6241   21.3294 H   0  0  0  0  0  0  0  0  0  0  0  0
   53.0403   32.0944   21.5553 H   0  0  0  0  0  0  0  0  0  0  0  0
   55.0687   33.4156   22.1465 H   0  0  0  0  0  0  0  0  0  0  0  0
   57.2597   32.2573   22.4165 H   0  0  0  0  0  0  0  0  0  0  0  0
   57.4101   29.7931   22.1379 H   0  0  0  0  0  0  0  0  0  0  0  0
   57.9056   27.3187   21.5840 H   0  0  0  0  0  0  0  0  0  0  0  0
   60.5180   29.1110   19.4510 H   0  0  0  0  0  0  0  0  0  0  0  0
   59.8576   30.1848   21.3292 H   0  0  0  0  0  0  0  0  0  0  0  0
   61.3326   29.6139   22.2160 H   0  0  0  0  0  0  0  0  0  0  0  0
   61.1663   31.7489   20.0523 H   0  0  0  0  0  0  0  0  0  0  0  0
   61.6118   31.9445   21.7967 H   0  0  0  0  0  0  0  0  0  0  0  0
   63.6050   31.9904   20.3370 H   0  0  0  0  0  0  0  0  0  0  0  0
   63.6199   30.5798   21.4511 H   0  0  0  0  0  0  0  0  0  0  0  0
   62.7412   30.5713   18.5247 H   0  0  0  0  0  0  0  0  0  0  0  0
   64.2835   29.8974   19.2051 H   0  0  0  0  0  0  0  0  0  0  0  0
   62.4547   28.2067   18.7147 H   0  0  0  0  0  0  0  0  0  0  0  0
   63.1369   28.2101   20.3964 H   0  0  0  0  0  0  0  0  0  0  0  0
  1  2  2  0
  2  3  1  0
  3  4  2  0
  4  5  1  0
  5  6  2  0
  6  7  1  0
  6  8  1  0
  8  9  1  0
  8 10  1  0
 10 11  2  0
 11 12  1  0
 12 13  2  0
 13 14  1  0
 14 15  2  0
  5 16  1  0
 16 17  2  0
 17 18  1  0
 18 19  2  0
 18 20  2  0
 18 21  1  0
 21 22  1  0
 22 23  1  0
 23 24  1  0
 24 25  1  0
 25 26  1  0
 17  2  1  0
 26 21  1  0
 15 10  1  0
  1 27  1  0
  1 28  1  0
  3 29  1  0
  4 30  1  0
  7 31  1  0
  9 32  1  0
  9 33  1  0
  9 34  1  0
 11 35  1  0
 12 36  1  0
 13 37  1  0
 14 38  1  0
 15 39  1  0
 16 40  1  0
 21 41  1  0
 22 42  1  0
 22 43  1  0
 23 44  1  0
 23 45  1  0
 24 46  1  0
 24 47  1  0
 25 48  1  0
 25 49  1  0
 26 50  1  0
 26 51  1  0
M  CHG  1  21   1
M  END
>  <vinaScore>  (1) 
-8.046

>  <smiles>  (1) 
C=c1cc/c(=C(\O)N(C)c2ccccc2)cc1S(=O)(=O)[NH+]1CCCCC1

$$$$
